Distribution/8500Node/DSSfiles/8500Node_Power_elem_kVA.txt

CIRCUIT ELEMENT POWER FLOW

(Power Flow into element from indicated Bus)

Power Delivery Elements

  Bus                Phase     kW     +j   kvar         kVA         PF

ELEMENT = "Vsource.SOURCE"
8500NODE                 1     -4084.0 +j   -575.5     4124.3       0.9902
8500NODE                 2     -3767.5 +j   -364.5     3785.1       0.9954
8500NODE                 3     -4108.4 +j   -195.9     4113.1       0.9989
   TERMINAL TOTAL ............-11959.9 +j  -1136.0    12013.7       0.9955
8500NODE                 0         0.0 +j      0.0        0.0       1.0000
8500NODE                 0         0.0 +j      0.0        0.0       1.0000
8500NODE                 0         0.0 +j      0.0        0.0       1.0000
   TERMINAL TOTAL ............     0.0 +j      0.0        0.0       1.0000

ELEMENT = "Line.HVMV_SUB_CONNECTOR"
_HVMV_SUB_LSB            1      4158.1 +j    281.0     4167.5       0.9977
_HVMV_SUB_LSB            2      3979.3 +j    303.1     3990.9       0.9971
_HVMV_SUB_LSB            3      3777.9 +j   -111.1     3779.5      -0.9996
   TERMINAL TOTAL ............ 11915.3 +j    473.1    11924.6       0.9992
HVMV_SUB_48332           1     -4158.1 +j   -281.0     4167.5       0.9977
HVMV_SUB_48332           2     -3979.3 +j   -303.1     3990.9       0.9971
HVMV_SUB_48332           3     -3777.9 +j    111.1     3779.5      -0.9996
   TERMINAL TOTAL ............-11915.3 +j   -473.1    11924.6       0.9992

ELEMENT = "Line.LN5502549-1"
M1009763                 2        13.8 +j      3.7       14.3       0.9662
   TERMINAL TOTAL ............    13.8 +j      3.7       14.3       0.9662
L2673322                 2       -13.8 +j     -3.7       14.3       0.9662
   TERMINAL TOTAL ............   -13.8 +j     -3.7       14.3       0.9662

ELEMENT = "Line.LN6259988-1"
M1069148                 3        10.3 +j      2.7       10.7       0.9664
   TERMINAL TOTAL ............    10.3 +j      2.7       10.7       0.9664
L2673309                 3       -10.3 +j     -2.8       10.7       0.9661
   TERMINAL TOTAL ............   -10.3 +j     -2.8       10.7       0.9661

ELEMENT = "Line.LN6077796-1"
M1069588                 2        11.8 +j      3.2       12.2       0.9663
   TERMINAL TOTAL ............    11.8 +j      3.2       12.2       0.9663
L2804270                 2       -11.8 +j     -3.2       12.2       0.9662
   TERMINAL TOTAL ............   -11.8 +j     -3.2       12.2       0.9662

ELEMENT = "Line.LN5835135-2"
M3036164                 2       114.8 +j     30.3      118.8       0.9669
   TERMINAL TOTAL ............   114.8 +j     30.3      118.8       0.9669
L2935553                 2      -114.8 +j    -30.3      118.8       0.9669
   TERMINAL TOTAL ............  -114.8 +j    -30.3      118.8       0.9669

ELEMENT = "Line.LN5896826-1"
M1209749                 2         5.9 +j      1.6        6.1       0.9671
   TERMINAL TOTAL ............     5.9 +j      1.6        6.1       0.9671
L2748840                 2        -5.9 +j     -1.6        6.1       0.9660
   TERMINAL TOTAL ............    -5.9 +j     -1.6        6.1       0.9660

ELEMENT = "Line.LN5714038-1"
M1108264                 2        15.8 +j      4.1       16.3       0.9680
   TERMINAL TOTAL ............    15.8 +j      4.1       16.3       0.9680
M1108263                 2       -15.8 +j     -4.1       16.3       0.9678
   TERMINAL TOTAL ............   -15.8 +j     -4.1       16.3       0.9678

ELEMENT = "Line.LN5653457-1"
L3085398                 1       140.5 +j     37.1      145.3       0.9668
L3085398                 2       298.2 +j     79.7      308.6       0.9661
L3085398                 3       114.0 +j     30.0      117.8       0.9670
   TERMINAL TOTAL ............   552.7 +j    146.8      571.8       0.9665
M1026891                 1      -140.5 +j    -37.1      145.3       0.9668
M1026891                 2      -297.9 +j    -79.6      308.4       0.9662
M1026891                 3      -113.9 +j    -30.0      117.8       0.9670
   TERMINAL TOTAL ............  -552.3 +j   -146.7      571.5       0.9665

ELEMENT = "Line.LN5835173-1"
L3216367                 1       202.2 +j     53.0      209.0       0.9674
L3216367                 2       446.6 +j    121.3      462.8       0.9650
L3216367                 3       340.5 +j     91.4      352.6       0.9658
   TERMINAL TOTAL ............   989.3 +j    265.7     1024.4       0.9658
M1069468                 1      -202.2 +j    -53.0      209.0       0.9673
M1069468                 2      -446.5 +j   -121.2      462.6       0.9651
M1069468                 3      -340.5 +j    -91.4      352.5       0.9658
   TERMINAL TOTAL ............  -989.1 +j   -265.6     1024.2       0.9658

ELEMENT = "Line.LN6321415-1"
M1142800                 2         9.9 +j      2.6       10.2       0.9680
   TERMINAL TOTAL ............     9.9 +j      2.6       10.2       0.9680
M1142799                 2        -9.9 +j     -2.6       10.2       0.9677
   TERMINAL TOTAL ............    -9.9 +j     -2.6       10.2       0.9677

ELEMENT = "Line.LN5565092-1"
M1047592                 3        15.5 +j      4.1       16.1       0.9663
   TERMINAL TOTAL ............    15.5 +j      4.1       16.1       0.9663
P827512                  3       -15.5 +j     -4.1       16.1       0.9663
   TERMINAL TOTAL ............   -15.5 +j     -4.1       16.1       0.9663

ELEMENT = "Line.LN6073648-1"
M1047339                 1        21.6 +j      5.7       22.3       0.9665
   TERMINAL TOTAL ............    21.6 +j      5.7       22.3       0.9665
P895104                  1       -21.6 +j     -5.7       22.3       0.9665
   TERMINAL TOTAL ............   -21.6 +j     -5.7       22.3       0.9665

ELEMENT = "Line.LN5774457-1"
M1026915                 1       210.8 +j     56.1      218.2       0.9664
M1026915                 2       170.4 +j     44.9      176.2       0.9670
M1026915                 3       163.9 +j     43.3      169.5       0.9668
   TERMINAL TOTAL ............   545.1 +j    144.3      563.9       0.9667
M1026920                 1      -210.8 +j    -56.0      218.1       0.9664
M1026920                 2      -170.4 +j    -44.9      176.2       0.9670
M1026920                 3      -163.8 +j    -43.3      169.5       0.9668
   TERMINAL TOTAL ............  -545.0 +j   -144.3      563.8       0.9667

ELEMENT = "Line.LN5534966-3"
N1138596                 1        78.4 +j     20.9       81.1       0.9662
   TERMINAL TOTAL ............    78.4 +j     20.9       81.1       0.9662
L3254207                 1       -78.4 +j    -20.9       81.1       0.9662
   TERMINAL TOTAL ............   -78.4 +j    -20.9       81.1       0.9662

ELEMENT = "Line.LN5859996-1"
M1069464                 2        19.8 +j      5.3       20.5       0.9662
   TERMINAL TOTAL ............    19.8 +j      5.3       20.5       0.9662
P873787                  2       -19.8 +j     -5.3       20.5       0.9662
   TERMINAL TOTAL ............   -19.8 +j     -5.3       20.5       0.9662

ELEMENT = "Line.LN6138610-2"
N1144665                 1       851.3 +j    227.6      881.2       0.9661
N1144665                 2       651.4 +j    177.9      675.2       0.9647
N1144665                 3       744.9 +j    201.4      771.6       0.9653
   TERMINAL TOTAL ............  2247.5 +j    607.0     2328.0       0.9654
M1047515                 1      -850.7 +j   -227.4      880.6       0.9661
M1047515                 2      -651.0 +j   -177.8      674.9       0.9647
M1047515                 3      -744.4 +j   -201.3      771.1       0.9653
   TERMINAL TOTAL ............ -2246.1 +j   -606.5     2326.6       0.9654

ELEMENT = "Line.LN6258435-3"
N1137002                 1        18.0 +j      4.8       18.6       0.9662
   TERMINAL TOTAL ............    18.0 +j      4.8       18.6       0.9662
M1047707                 1       -18.0 +j     -4.8       18.6       0.9660
   TERMINAL TOTAL ............   -18.0 +j     -4.8       18.6       0.9660

ELEMENT = "Line.LN5804790-1"
L2729406                 3        10.3 +j      2.7       10.7       0.9667
   TERMINAL TOTAL ............    10.3 +j      2.7       10.7       0.9667
L2897768                 3       -10.3 +j     -2.8       10.7       0.9661
   TERMINAL TOTAL ............   -10.3 +j     -2.8       10.7       0.9661

ELEMENT = "Line.LN6900591-14"
L3649301                 1        32.5 +j      8.7       33.6       0.9661
   TERMINAL TOTAL ............    32.5 +j      8.7       33.6       0.9661
L3649302                 1       -32.5 +j     -8.7       33.6       0.9661
   TERMINAL TOTAL ............   -32.5 +j     -8.7       33.6       0.9661

ELEMENT = "Line.LN6409873-1"
L2970842                 2        76.2 +j     19.8       78.7       0.9678
   TERMINAL TOTAL ............    76.2 +j     19.8       78.7       0.9678
M1089113                 2       -76.2 +j    -19.8       78.7       0.9678
   TERMINAL TOTAL ............   -76.2 +j    -19.8       78.7       0.9678

ELEMENT = "Line.LN6014135-1"
M1047312                 1        67.6 +j     18.0       69.9       0.9663
   TERMINAL TOTAL ............    67.6 +j     18.0       69.9       0.9663
P893163                  1       -67.6 +j    -18.0       69.9       0.9663
   TERMINAL TOTAL ............   -67.6 +j    -18.0       69.9       0.9663

ELEMENT = "Line.LN6077784-1"
L2822871                 1       407.9 +j    108.5      422.1       0.9664
L2822871                 2       495.3 +j    133.2      512.9       0.9657
L2822871                 3       305.0 +j     80.8      315.5       0.9667
   TERMINAL TOTAL ............  1208.2 +j    322.5     1250.5       0.9662
M1026872                 1      -407.8 +j   -108.4      422.0       0.9664
M1026872                 2      -495.2 +j   -133.1      512.7       0.9657
M1026872                 3      -305.0 +j    -80.8      315.5       0.9667
   TERMINAL TOTAL ............ -1207.9 +j   -322.2     1250.2       0.9662

ELEMENT = "Line.LN5744338-1"
M1026312                 2       185.7 +j     49.5      192.2       0.9663
   TERMINAL TOTAL ............   185.7 +j     49.5      192.2       0.9663
L2973163                 2      -185.6 +j    -49.4      192.1       0.9663
   TERMINAL TOTAL ............  -185.6 +j    -49.4      192.1       0.9663

ELEMENT = "Line.LN6991381-4"
L3728038                 1        36.1 +j      9.6       37.3       0.9661
   TERMINAL TOTAL ............    36.1 +j      9.6       37.3       0.9661
L3728039                 1       -36.1 +j     -9.6       37.3       0.9660
   TERMINAL TOTAL ............   -36.1 +j     -9.6       37.3       0.9660

ELEMENT = "Line.LN5774480-1"
M1069567                 2       224.2 +j     59.8      232.0       0.9662
   TERMINAL TOTAL ............   224.2 +j     59.8      232.0       0.9662
M1069582                 2      -223.9 +j    -59.7      231.8       0.9663
   TERMINAL TOTAL ............  -223.9 +j    -59.7      231.8       0.9663

ELEMENT = "Line.LN5986938-3"
N1140830                 1        37.9 +j     10.0       39.2       0.9670
   TERMINAL TOTAL ............    37.9 +j     10.0       39.2       0.9670
L3216351                 1       -37.9 +j    -10.0       39.2       0.9670
   TERMINAL TOTAL ............   -37.9 +j    -10.0       39.2       0.9670

ELEMENT = "Line.LN5894230-1"
L2952007                 3        10.3 +j      2.7       10.7       0.9665
   TERMINAL TOTAL ............    10.3 +j      2.7       10.7       0.9665
L2861158                 3       -10.3 +j     -2.8       10.7       0.9661
   TERMINAL TOTAL ............   -10.3 +j     -2.8       10.7       0.9661

ELEMENT = "Line.LN5683858-3"
N1140827                 1        18.1 +j      4.8       18.7       0.9663
N1140827                 2        29.7 +j      7.9       30.8       0.9664
N1140827                 3        20.8 +j      5.5       21.5       0.9664
   TERMINAL TOTAL ............    68.6 +j     18.3       71.0       0.9664
M1026726                 1       -18.1 +j     -4.8       18.7       0.9662
M1026726                 2       -29.7 +j     -7.9       30.8       0.9663
M1026726                 3       -20.8 +j     -5.5       21.5       0.9664
   TERMINAL TOTAL ............   -68.6 +j    -18.3       71.0       0.9663

ELEMENT = "Line.LN5920279-5"
L2730106                 1      2362.1 +j    358.4     2389.2       0.9887
L2730106                 2      2268.6 +j    348.9     2295.3       0.9884
L2730106                 3      1677.8 +j     60.8     1678.9       0.9993
   TERMINAL TOTAL ............  6308.6 +j    768.1     6355.1       0.9927
N1142099                 1     -2361.4 +j   -357.3     2388.2       0.9887
N1142099                 2     -2268.4 +j   -347.8     2294.9       0.9885
N1142099                 3     -1677.8 +j    -60.6     1678.9       0.9993
   TERMINAL TOTAL ............ -6307.6 +j   -765.7     6353.9       0.9927

ELEMENT = "Line.LN6439600-1"
M1026658                 1         9.0 +j      2.4        9.3       0.9663
   TERMINAL TOTAL ............     9.0 +j      2.4        9.3       0.9663
L3172805                 1        -9.0 +j     -2.4        9.3       0.9660
   TERMINAL TOTAL ............    -9.0 +j     -2.4        9.3       0.9660

ELEMENT = "Line.LN5589097-1"
P895112                  1        13.5 +j      3.6       14.0       0.9661
   TERMINAL TOTAL ............    13.5 +j      3.6       14.0       0.9661
L3048962                 1       -13.5 +j     -3.6       14.0       0.9661
   TERMINAL TOTAL ............   -13.5 +j     -3.6       14.0       0.9661

ELEMENT = "Line.LN5651975-1"
L2991914                 1       436.9 +j    117.6      452.4       0.9656
L2991914                 2       106.3 +j     27.6      109.8       0.9679
L2991914                 3       237.9 +j     62.3      245.9       0.9674
   TERMINAL TOTAL ............   781.0 +j    207.5      808.1       0.9665
M1047503                 1      -436.7 +j   -117.5      452.2       0.9657
M1047503                 2      -106.3 +j    -27.6      109.8       0.9679
M1047503                 3      -237.8 +j    -62.3      245.8       0.9673
   TERMINAL TOTAL ............  -780.7 +j   -207.4      807.8       0.9665

ELEMENT = "Line.LN5865236-1"
M1047751                 1        18.0 +j      4.8       18.6       0.9662
   TERMINAL TOTAL ............    18.0 +j      4.8       18.6       0.9662
L2973154                 1       -18.0 +j     -4.8       18.6       0.9662
   TERMINAL TOTAL ............   -18.0 +j     -4.8       18.6       0.9662

ELEMENT = "Line.LN5593232-1"
L3010565                 3        10.3 +j      2.7       10.7       0.9665
   TERMINAL TOTAL ............    10.3 +j      2.7       10.7       0.9665
L2897775                 3       -10.3 +j     -2.8       10.7       0.9661
   TERMINAL TOTAL ............   -10.3 +j     -2.8       10.7       0.9661

ELEMENT = "Line.LN5740283-1"
M1125955                 3        12.4 +j      3.3       12.8       0.9663
   TERMINAL TOTAL ............    12.4 +j      3.3       12.8       0.9663
M1125957                 3       -12.4 +j     -3.3       12.8       0.9663
   TERMINAL TOTAL ............   -12.4 +j     -3.3       12.8       0.9663

ELEMENT = "Line.LN6106559-1"
M1069640                 2        27.6 +j      7.3       28.6       0.9665
   TERMINAL TOTAL ............    27.6 +j      7.3       28.6       0.9665
L2804269                 2       -27.6 +j     -7.4       28.6       0.9663
   TERMINAL TOTAL ............   -27.6 +j     -7.4       28.6       0.9663

ELEMENT = "Line.LN5714056-3"
M1026702                 1       361.3 +j     96.0      373.8       0.9664
M1026702                 2        81.4 +j     21.3       84.1       0.9675
M1026702                 3       180.0 +j     47.5      186.2       0.9669
   TERMINAL TOTAL ............   622.7 +j    164.8      644.2       0.9667
N1139551                 1      -360.8 +j    -95.8      373.3       0.9665
N1139551                 2       -81.4 +j    -21.3       84.1       0.9674
N1139551                 3      -179.8 +j    -47.5      186.0       0.9669
   TERMINAL TOTAL ............  -622.0 +j   -164.6      643.4       0.9667

ELEMENT = "Line.LN5985355-3"
N1136355                 2       393.2 +j    105.2      407.0       0.9661
   TERMINAL TOTAL ............   393.2 +j    105.2      407.0       0.9661
L2783231                 2      -392.9 +j   -105.0      406.6       0.9661
   TERMINAL TOTAL ............  -392.9 +j   -105.0      406.6       0.9661

ELEMENT = "Line.LN5531956-1"
L2748143                 1         9.0 +j      2.4        9.3       0.9662
   TERMINAL TOTAL ............     9.0 +j      2.4        9.3       0.9662
L3251854                 1        -9.0 +j     -2.4        9.3       0.9660
   TERMINAL TOTAL ............    -9.0 +j     -2.4        9.3       0.9660

ELEMENT = "Line.LN5650048-1"
M1069610                 2         9.9 +j      2.6       10.2       0.9664
   TERMINAL TOTAL ............     9.9 +j      2.6       10.2       0.9664
M1069600                 2        -9.9 +j     -2.6       10.2       0.9662
   TERMINAL TOTAL ............    -9.9 +j     -2.6       10.2       0.9662

ELEMENT = "Line.LN6290203-1"
M1069424                 1       155.1 +j     40.7      160.4       0.9673
M1069424                 2       383.5 +j    103.6      397.3       0.9654
M1069424                 3       278.2 +j     74.1      287.9       0.9663
   TERMINAL TOTAL ............   816.8 +j    218.4      845.5       0.9661
L2935549                 1      -155.1 +j    -40.7      160.4       0.9672
L2935549                 2      -383.3 +j   -103.4      397.0       0.9655
L2935549                 3      -278.2 +j    -74.1      287.8       0.9663
   TERMINAL TOTAL ............  -816.6 +j   -218.2      845.3       0.9661

ELEMENT = "Line.LN6134414-1"
P895089                  3        20.7 +j      5.5       21.4       0.9665
   TERMINAL TOTAL ............    20.7 +j      5.5       21.4       0.9665
L3235242                 3       -20.7 +j     -5.5       21.4       0.9664
   TERMINAL TOTAL ............   -20.7 +j     -5.5       21.4       0.9664

ELEMENT = "Line.LN6259998-2"
M1026795                 3        12.4 +j      3.3       12.8       0.9663
   TERMINAL TOTAL ............    12.4 +j      3.3       12.8       0.9663
N1140522                 3       -12.4 +j     -3.3       12.8       0.9663
   TERMINAL TOTAL ............   -12.4 +j     -3.3       12.8       0.9663

ELEMENT = "Line.LN6078767-1"
L3030199                 1       759.4 +j   -102.2      766.2      -0.9911
L3030199                 2       907.0 +j    -55.4      908.7      -0.9981
L3030199                 3      1156.3 +j      3.1     1156.3       1.0000
   TERMINAL TOTAL ............  2822.7 +j   -154.5     2826.9      -0.9985
M1125934                 1      -759.4 +j    102.3      766.2      -0.9911
M1125934                 2      -906.9 +j     55.5      908.6      -0.9981
M1125934                 3     -1156.2 +j     -2.8     1156.2       1.0000
   TERMINAL TOTAL ............ -2822.5 +j    155.0     2826.7      -0.9985

ELEMENT = "Line.LN6017300-1"
M1069189                 3         6.2 +j      1.6        6.4       0.9665
   TERMINAL TOTAL ............     6.2 +j      1.6        6.4       0.9665
L2860487                 3        -6.2 +j     -1.7        6.4       0.9660
   TERMINAL TOTAL ............    -6.2 +j     -1.7        6.4       0.9660

ELEMENT = "Line.LN8979257-2"
221-312488               1         9.0 +j      2.4        9.3       0.9676
221-312488               2         9.9 +j      2.6       10.2       0.9676
221-312488               3        10.3 +j      2.7       10.7       0.9676
   TERMINAL TOTAL ............    29.2 +j      7.6       30.2       0.9676
M1089183                 1        -9.0 +j     -2.4        9.3       0.9673
M1089183                 2        -9.9 +j     -2.6       10.2       0.9673
M1089183                 3       -10.3 +j     -2.7       10.7       0.9673
   TERMINAL TOTAL ............   -29.2 +j     -7.7       30.2       0.9673

ELEMENT = "Line.LN81048109-1"
M1108464                 2        30.0 +j      7.8       31.0       0.9676
   TERMINAL TOTAL ............    30.0 +j      7.8       31.0       0.9676
L3102286                 2       -30.0 +j     -7.9       31.0       0.9671
   TERMINAL TOTAL ............   -30.0 +j     -7.9       31.0       0.9671

ELEMENT = "Line.293471"
F739845                  1         9.0 +j      2.4        9.3       0.9661
F739845                  2         9.9 +j      2.6       10.2       0.9663
F739845                  3        10.3 +j      2.8       10.7       0.9663
   TERMINAL TOTAL ............    29.2 +j      7.8       30.2       0.9662
293471                   1        -9.0 +j     -2.4        9.3       0.9660
293471                   2        -9.9 +j     -2.6       10.2       0.9661
293471                   3       -10.3 +j     -2.8       10.7       0.9661
   TERMINAL TOTAL ............   -29.2 +j     -7.8       30.2       0.9661

ELEMENT = "Line.LN5534965-2"
P827499                  1         9.0 +j      2.4        9.3       0.9660
   TERMINAL TOTAL ............     9.0 +j      2.4        9.3       0.9660
N1139254                 1        -9.0 +j     -2.4        9.3       0.9660
   TERMINAL TOTAL ............    -9.0 +j     -2.4        9.3       0.9660

ELEMENT = "Line.LN5655683-1"
M1026657                 1       141.8 +j     37.7      146.8       0.9665
   TERMINAL TOTAL ............   141.8 +j     37.7      146.8       0.9665
M1026656                 1      -141.8 +j    -37.7      146.8       0.9665
   TERMINAL TOTAL ............  -141.8 +j    -37.7      146.8       0.9665

ELEMENT = "Line.LN5686247-1"
M1108299                 2        13.8 +j      3.7       14.3       0.9667
   TERMINAL TOTAL ............    13.8 +j      3.7       14.3       0.9667
M1108300                 2       -13.8 +j     -3.7       14.3       0.9667
   TERMINAL TOTAL ............   -13.8 +j     -3.7       14.3       0.9667

ELEMENT = "Line.LN6048642-1"
L3198355                 2         0.0 +j     -0.0        0.0      -0.0000
   TERMINAL TOTAL ............     0.0 +j     -0.0        0.0      -0.0000
L2805037                 2        -0.0 +j      0.0        0.0      -0.3715
   TERMINAL TOTAL ............    -0.0 +j      0.0        0.0      -0.3715

ELEMENT = "Line.LN5928544-3"
N1137994                 3       103.5 +j     27.5      107.1       0.9665
   TERMINAL TOTAL ............   103.5 +j     27.5      107.1       0.9665
M1069484                 3      -103.5 +j    -27.5      107.1       0.9665
   TERMINAL TOTAL ............  -103.5 +j    -27.5      107.1       0.9665

ELEMENT = "Line.LN6108172-1"
L2860504                 1        18.0 +j      4.8       18.6       0.9665
   TERMINAL TOTAL ............    18.0 +j      4.8       18.6       0.9665
L2860493                 1       -18.0 +j     -4.8       18.6       0.9661
   TERMINAL TOTAL ............   -18.0 +j     -4.8       18.6       0.9661

ELEMENT = "Line.LN5532754-1"
M1026783                 1       400.9 +j    107.3      415.0       0.9660
M1026783                 2       106.2 +j     27.7      109.8       0.9676
M1026783                 3       197.7 +j     51.8      204.4       0.9673
   TERMINAL TOTAL ............   704.8 +j    186.8      729.1       0.9666
M1026780                 1      -400.8 +j   -107.2      414.9       0.9660
M1026780                 2      -106.2 +j    -27.7      109.8       0.9676
M1026780                 3      -197.7 +j    -51.8      204.3       0.9673
   TERMINAL TOTAL ............  -704.7 +j   -186.8      729.0       0.9666

ELEMENT = "Line.LN5591834-1"
P895111                  3        26.8 +j      7.1       27.8       0.9667
   TERMINAL TOTAL ............    26.8 +j      7.1       27.8       0.9667
L2895496                 3       -26.8 +j     -7.1       27.8       0.9666
   TERMINAL TOTAL ............   -26.8 +j     -7.1       27.8       0.9666

ELEMENT = "Line.LN6347196-2"
N1140819                 1       194.8 +j     51.6      201.6       0.9667
N1140819                 2        75.5 +j     19.8       78.0       0.9674
N1140819                 3       179.6 +j     47.5      185.8       0.9668
   TERMINAL TOTAL ............   450.0 +j    118.9      465.4       0.9668
M1026700                 1      -194.8 +j    -51.6      201.5       0.9667
M1026700                 2       -75.5 +j    -19.8       78.0       0.9673
M1026700                 3      -179.6 +j    -47.5      185.8       0.9668
   TERMINAL TOTAL ............  -449.9 +j   -118.9      465.3       0.9668

ELEMENT = "Line.LN5532741-1"
M1089173                 3        63.1 +j     16.7       65.2       0.9668
   TERMINAL TOTAL ............    63.1 +j     16.7       65.2       0.9668
L2935551                 3       -63.1 +j    -16.7       65.2       0.9667
   TERMINAL TOTAL ............   -63.1 +j    -16.7       65.2       0.9667

ELEMENT = "Line.LN5804803-1"
M1026344                 1         5.4 +j      1.4        5.6       0.9679
   TERMINAL TOTAL ............     5.4 +j      1.4        5.6       0.9679
M1026364                 1        -5.4 +j     -1.4        5.6       0.9663
   TERMINAL TOTAL ............    -5.4 +j     -1.4        5.6       0.9663

ELEMENT = "Line.LN6169248-1"
L2879070                 1       792.4 +j    214.1      820.8       0.9654
L2879070                 2       531.9 +j    145.5      551.4       0.9646
L2879070                 3       326.5 +j     86.4      337.7       0.9667
   TERMINAL TOTAL ............  1650.8 +j    446.0     1710.0       0.9654
L3216345                 1      -791.6 +j   -213.5      819.9       0.9655
L3216345                 2      -531.8 +j   -145.3      551.3       0.9647
L3216345                 3      -326.4 +j    -86.4      337.6       0.9667
   TERMINAL TOTAL ............ -1649.8 +j   -445.1     1708.8       0.9655

ELEMENT = "Line.LN5532786-2"
M1069428                 2        15.8 +j      4.2       16.4       0.9663
   TERMINAL TOTAL ............    15.8 +j      4.2       16.4       0.9663
N1139257                 2       -15.8 +j     -4.2       16.4       0.9663
   TERMINAL TOTAL ............   -15.8 +j     -4.2       16.4       0.9663

ELEMENT = "Line.LN5744339-1"
L2991919                 1       114.5 +j     30.5      118.5       0.9663
   TERMINAL TOTAL ............   114.5 +j     30.5      118.5       0.9663
M1026361                 1      -114.5 +j    -30.5      118.5       0.9663
   TERMINAL TOTAL ............  -114.5 +j    -30.5      118.5       0.9663

ELEMENT = "Line.LN5531255-3"
N1147857                 1       118.1 +j     31.4      122.2       0.9664
   TERMINAL TOTAL ............   118.1 +j     31.4      122.2       0.9664
M1009742                 1      -118.1 +j    -31.4      122.2       0.9664
   TERMINAL TOTAL ............  -118.1 +j    -31.4      122.2       0.9664

ELEMENT = "Line.LN5926308-2"
Q14412                   1       283.5 +j     75.0      293.3       0.9668
Q14412                   2       342.4 +j     92.6      354.7       0.9653
Q14412                   3       137.6 +j     36.1      142.3       0.9672
   TERMINAL TOTAL ............   763.5 +j    203.6      790.2       0.9662
M1047325                 1      -283.4 +j    -74.9      293.2       0.9668
M1047325                 2      -342.3 +j    -92.5      354.5       0.9654
M1047325                 3      -137.6 +j    -36.1      142.3       0.9672
   TERMINAL TOTAL ............  -763.3 +j   -203.6      790.0       0.9662

ELEMENT = "Line.LN5683856-3"
N1139263                 1         9.0 +j      2.4        9.3       0.9660
   TERMINAL TOTAL ............     9.0 +j      2.4        9.3       0.9660
L3048227                 1        -9.0 +j     -2.4        9.3       0.9659
   TERMINAL TOTAL ............    -9.0 +j     -2.4        9.3       0.9659

ELEMENT = "Line.LN6171502-1"
P827506                  1        14.4 +j      3.8       14.9       0.9664
   TERMINAL TOTAL ............    14.4 +j      3.8       14.9       0.9664
M1069469                 1       -14.4 +j     -3.8       14.9       0.9664
   TERMINAL TOTAL ............   -14.4 +j     -3.8       14.9       0.9664

ELEMENT = "Line.LN5593228-1"
M1027019                 2         9.9 +j      2.6       10.2       0.9663
   TERMINAL TOTAL ............     9.9 +j      2.6       10.2       0.9663
L2785522                 2        -9.9 +j     -2.6       10.2       0.9661
   TERMINAL TOTAL ............    -9.9 +j     -2.6       10.2       0.9661

ELEMENT = "Line.LN6380800-1"
L3216338                 2         9.9 +j      2.6       10.2       0.9663
   TERMINAL TOTAL ............     9.9 +j      2.6       10.2       0.9663
L2973146                 2        -9.9 +j     -2.6       10.2       0.9661
   TERMINAL TOTAL ............    -9.9 +j     -2.6       10.2       0.9661

ELEMENT = "Line.LN6199525-2"
M3037452                 1         3.6 +j      1.0        3.7       0.9665
   TERMINAL TOTAL ............     3.6 +j      1.0        3.7       0.9665
L2973164                 1        -3.6 +j     -1.0        3.7       0.9659
   TERMINAL TOTAL ............    -3.6 +j     -1.0        3.7       0.9659

ELEMENT = "Line.LN5772710-2"
L3120376                 1        72.0 +j     19.2       74.5       0.9662
   TERMINAL TOTAL ............    72.0 +j     19.2       74.5       0.9662
M1026925                 1       -72.0 +j    -19.2       74.5       0.9662
   TERMINAL TOTAL ............   -72.0 +j    -19.2       74.5       0.9662

ELEMENT = "Line.LN8961760-1"
M1047612                 3        36.3 +j      9.5       37.5       0.9674
   TERMINAL TOTAL ............    36.3 +j      9.5       37.5       0.9674
P828360                  3       -36.3 +j     -9.5       37.5       0.9674
   TERMINAL TOTAL ............   -36.3 +j     -9.5       37.5       0.9674

ELEMENT = "Line.LN6047556-1"
M1089195                 3        10.3 +j      2.7       10.7       0.9664
   TERMINAL TOTAL ............    10.3 +j      2.7       10.7       0.9664
L3141393                 3       -10.3 +j     -2.8       10.7       0.9660
   TERMINAL TOTAL ............   -10.3 +j     -2.8       10.7       0.9660

ELEMENT = "Line.LN6138603-1"
M1026946                 2        15.8 +j      4.2       16.3       0.9669
   TERMINAL TOTAL ............    15.8 +j      4.2       16.3       0.9669
M1026940                 2       -15.8 +j     -4.2       16.3       0.9666
   TERMINAL TOTAL ............   -15.8 +j     -4.2       16.3       0.9666

ELEMENT = "Line.LN6108139-1"
M1047471                 2         5.9 +j      1.6        6.1       0.9662
   TERMINAL TOTAL ............     5.9 +j      1.6        6.1       0.9662
L3216349                 2        -5.9 +j     -1.6        6.1       0.9661
   TERMINAL TOTAL ............    -5.9 +j     -1.6        6.1       0.9661

ELEMENT = "Line.LN6388581-2"
M1047401                 1         5.4 +j      1.4        5.6       0.9683
   TERMINAL TOTAL ............     5.4 +j      1.4        5.6       0.9683
L2748132                 1        -5.4 +j     -1.4        5.6       0.9680
   TERMINAL TOTAL ............    -5.4 +j     -1.4        5.6       0.9680

ELEMENT = "Line.LN5774460-1"
L3122820                 1         5.4 +j      1.4        5.6       0.9663
   TERMINAL TOTAL ............     5.4 +j      1.4        5.6       0.9663
L3141398                 1        -5.4 +j     -1.4        5.6       0.9659
   TERMINAL TOTAL ............    -5.4 +j     -1.4        5.6       0.9659

ELEMENT = "Line.LN5624387-1"
M1108360                 3        15.5 +j      4.1       16.1       0.9663
   TERMINAL TOTAL ............    15.5 +j      4.1       16.1       0.9663
L3048968                 3       -15.5 +j     -4.1       16.1       0.9662
   TERMINAL TOTAL ............   -15.5 +j     -4.1       16.1       0.9662

ELEMENT = "Line.LN6137087-1"
L2801950                 3        82.7 +j     22.0       85.5       0.9665
   TERMINAL TOTAL ............    82.7 +j     22.0       85.5       0.9665
M1069224                 3       -82.7 +j    -22.0       85.5       0.9665
   TERMINAL TOTAL ............   -82.7 +j    -22.0       85.5       0.9665

ELEMENT = "Line.LN6077809-1"
L2766746                 3       103.4 +j     27.5      107.0       0.9664
   TERMINAL TOTAL ............   103.4 +j     27.5      107.0       0.9664
M1027073                 3      -103.4 +j    -27.5      107.0       0.9664
   TERMINAL TOTAL ............  -103.4 +j    -27.5      107.0       0.9664

ELEMENT = "Line.LN6440079-1"
L2895496                 3        26.8 +j      7.1       27.8       0.9666
   TERMINAL TOTAL ............    26.8 +j      7.1       27.8       0.9666
M1142873                 3       -26.8 +j     -7.1       27.8       0.9665
   TERMINAL TOTAL ............   -26.8 +j     -7.1       27.8       0.9665

ELEMENT = "Line.LN5804794-1"
M1069181                 1        82.0 +j     21.9       84.9       0.9661
   TERMINAL TOTAL ............    82.0 +j     21.9       84.9       0.9661
L2973151                 1       -82.0 +j    -21.9       84.9       0.9661
   TERMINAL TOTAL ............   -82.0 +j    -21.9       84.9       0.9661

ELEMENT = "Line.LN5654484-1"
L3179682                 3        10.3 +j      2.8       10.7       0.9662
   TERMINAL TOTAL ............    10.3 +j      2.8       10.7       0.9662
L2786274                 3       -10.3 +j     -2.8       10.7       0.9661
   TERMINAL TOTAL ............   -10.3 +j     -2.8       10.7       0.9661

ELEMENT = "Line.LN5774465-1"
L3066816                 1        18.1 +j      4.7       18.7       0.9678
   TERMINAL TOTAL ............    18.1 +j      4.7       18.7       0.9678
M1026667                 1       -18.1 +j     -4.7       18.7       0.9676
   TERMINAL TOTAL ............   -18.1 +j     -4.7       18.7       0.9676

ELEMENT = "Line.LN5473349-1"
M1108529                 1      2204.6 +j    290.5     2223.6       0.9914
M1108529                 2      2235.6 +j    306.1     2256.5       0.9908
M1108529                 3      1581.5 +j     26.0     1581.7       0.9999
   TERMINAL TOTAL ............  6021.7 +j    622.6     6053.8       0.9947
M1108532                 1     -2203.9 +j   -289.7     2222.9       0.9915
M1108532                 2     -2235.3 +j   -305.0     2256.1       0.9908
M1108532                 3     -1581.6 +j    -25.7     1581.8       0.9999
   TERMINAL TOTAL ............ -6020.8 +j   -620.5     6052.7       0.9947

ELEMENT = "Line.LN6169253-1"
L2766723                 1         9.0 +j      2.4        9.3       0.9662
   TERMINAL TOTAL ............     9.0 +j      2.4        9.3       0.9662
L3122822                 1        -9.0 +j     -2.4        9.3       0.9660
   TERMINAL TOTAL ............    -9.0 +j     -2.4        9.3       0.9660

ELEMENT = "Line.LN6350536-1"
L2673312                 1         5.4 +j      1.4        5.6       0.9668
   TERMINAL TOTAL ............     5.4 +j      1.4        5.6       0.9668
L3235247                 1        -5.4 +j     -1.4        5.6       0.9659
   TERMINAL TOTAL ............    -5.4 +j     -1.4        5.6       0.9659

ELEMENT = "Line.LN6048523-1"
M1166391                 3       149.0 +j     39.6      154.2       0.9665
   TERMINAL TOTAL ............   149.0 +j     39.6      154.2       0.9665
L3254873                 3      -148.9 +j    -39.5      154.1       0.9665
   TERMINAL TOTAL ............  -148.9 +j    -39.5      154.1       0.9665

ELEMENT = "Line.LN5594152-1"
L2861157                 3       166.3 +j     44.3      172.1       0.9663
   TERMINAL TOTAL ............   166.3 +j     44.3      172.1       0.9663
P901951                  3      -166.2 +j    -44.2      172.0       0.9664
   TERMINAL TOTAL ............  -166.2 +j    -44.2      172.0       0.9664

ELEMENT = "Line.LN5865248-1"
M1047346                 1       333.1 +j     88.1      344.5       0.9668
M1047346                 2       358.3 +j     97.0      371.2       0.9653
M1047346                 3       137.7 +j     36.1      142.4       0.9674
   TERMINAL TOTAL ............   829.1 +j    221.1      858.1       0.9662
M1047345                 1      -332.9 +j    -88.1      344.4       0.9668
M1047345                 2      -358.1 +j    -96.9      371.0       0.9653
M1047345                 3      -137.7 +j    -36.1      142.4       0.9674
   TERMINAL TOTAL ............  -828.8 +j   -221.0      857.7       0.9662

ELEMENT = "Line.LN6046143-1"
L2989596                 2         3.9 +j      1.0        4.1       0.9666
   TERMINAL TOTAL ............     3.9 +j      1.0        4.1       0.9666
L2822873                 2        -3.9 +j     -1.1        4.1       0.9660
   TERMINAL TOTAL ............    -3.9 +j     -1.1        4.1       0.9660

ELEMENT = "Line.LN5803287-1"
M1108328                 3        20.8 +j      5.5       21.5       0.9663
   TERMINAL TOTAL ............    20.8 +j      5.5       21.5       0.9663
L2875754                 3       -20.8 +j     -5.5       21.5       0.9662
   TERMINAL TOTAL ............   -20.8 +j     -5.5       21.5       0.9662

ELEMENT = "Line.LN5589094-1"
L2786204                 3       229.9 +j     61.6      238.1       0.9659
   TERMINAL TOTAL ............   229.9 +j     61.6      238.1       0.9659
M1209819                 3      -229.8 +j    -61.6      237.9       0.9659
   TERMINAL TOTAL ............  -229.8 +j    -61.6      237.9       0.9659

ELEMENT = "Line.LN5954983-1"
P901972                  1       118.0 +j     31.4      122.2       0.9664
   TERMINAL TOTAL ............   118.0 +j     31.4      122.2       0.9664
M1009726                 1      -118.0 +j    -31.4      122.1       0.9664
   TERMINAL TOTAL ............  -118.0 +j    -31.4      122.1       0.9664

ELEMENT = "Line.LN5924696-2"
M1047702                 1         5.4 +j      1.4        5.6       0.9664
   TERMINAL TOTAL ............     5.4 +j      1.4        5.6       0.9664
N1137001                 1        -5.4 +j     -1.4        5.6       0.9661
   TERMINAL TOTAL ............    -5.4 +j     -1.4        5.6       0.9661

ELEMENT = "Line.LN6506311-4"
L2767340                 1        -0.0 +j     -0.0        0.0       0.0262
L2767340                 2        -0.0 +j     -0.0        0.0       0.0504
L2767340                 3         6.2 +j      1.6        6.4       0.9664
   TERMINAL TOTAL ............     6.2 +j      1.6        6.4       0.9664
M3037449                 1        -0.0 +j      0.0        0.0      -0.9813
M3037449                 2         0.0 +j     -0.0        0.0      -0.9720
M3037449                 3        -6.2 +j     -1.6        6.4       0.9664
   TERMINAL TOTAL ............    -6.2 +j     -1.6        6.4       0.9664

ELEMENT = "Line.LN5653493-1"
M1047457                 2       117.7 +j     31.3      121.8       0.9664
   TERMINAL TOTAL ............   117.7 +j     31.3      121.8       0.9664
L2710546                 2      -117.7 +j    -31.3      121.8       0.9664
   TERMINAL TOTAL ............  -117.7 +j    -31.3      121.8       0.9664

ELEMENT = "Line.LN5684836-1"
L2674027                 1      2209.6 +j    297.5     2229.5       0.9911
L2674027                 2      2237.8 +j    314.5     2259.8       0.9903
L2674027                 3      1669.5 +j     51.9     1670.3       0.9995
   TERMINAL TOTAL ............  6116.9 +j    663.9     6152.8       0.9942
L2692633                 1     -2207.5 +j   -294.8     2227.1       0.9912
L2692633                 2     -2237.0 +j   -311.3     2258.6       0.9905
L2692633                 3     -1669.5 +j    -51.1     1670.3       0.9995
   TERMINAL TOTAL ............ -6114.0 +j   -657.1     6149.2       0.9943

ELEMENT = "Line.LN5715016-3"
N1142108                 1         5.4 +j      1.4        5.6       0.9663
   TERMINAL TOTAL ............     5.4 +j      1.4        5.6       0.9663
L2674051                 1        -5.4 +j     -1.4        5.6       0.9659
   TERMINAL TOTAL ............    -5.4 +j     -1.4        5.6       0.9659

ELEMENT = "Line.LN6138614-1"
M1069135                 1       352.4 +j   -213.4      412.0      -0.8554
M1069135                 2       359.4 +j   -209.1      415.8      -0.8643
M1069135                 3       169.0 +j   -272.5      320.6      -0.5272
   TERMINAL TOTAL ............   880.9 +j   -695.0     1122.0      -0.7851
R18242                   1      -352.0 +j    213.5      411.7      -0.8551
R18242                   2      -359.1 +j    209.3      415.6      -0.8640
R18242                   3      -168.9 +j    272.5      320.6      -0.5267
   TERMINAL TOTAL ............  -880.0 +j    695.3     1121.5      -0.7846

ELEMENT = "Line.LN6077781-2"
M1047534                 1      1882.2 +j    514.8     1951.4       0.9646
M1047534                 2      1723.4 +j    481.1     1789.3       0.9632
M1047534                 3      1411.4 +j    380.2     1461.7       0.9656
   TERMINAL TOTAL ............  5017.0 +j   1376.1     5202.3       0.9644
N1136663                 1     -1877.5 +j   -510.9     1945.7       0.9649
N1136663                 2     -1720.4 +j   -477.6     1785.4       0.9636
N1136663                 3     -1409.4 +j   -378.5     1459.4       0.9658
   TERMINAL TOTAL ............ -5007.3 +j  -1366.9     5190.5       0.9647

ELEMENT = "Line.LN5675121-1"
M1108508                 3         4.1 +j      1.1        4.3       0.9667
   TERMINAL TOTAL ............     4.1 +j      1.1        4.3       0.9667
L3097861                 3        -4.1 +j     -1.1        4.3       0.9660
   TERMINAL TOTAL ............    -4.1 +j     -1.1        4.3       0.9660

ELEMENT = "Line.LN5773046-1"
M1069560                 2       244.2 +j     65.2      252.8       0.9662
   TERMINAL TOTAL ............   244.2 +j     65.2      252.8       0.9662
M1069567                 2      -244.1 +j    -65.1      252.6       0.9662
   TERMINAL TOTAL ............  -244.1 +j    -65.1      252.6       0.9662

ELEMENT = "Line.LN6380809-2"
L2973153                 1       164.5 +j     43.2      170.1       0.9673
L2973153                 2       507.3 +j    137.8      525.7       0.9650
L2973153                 3        57.9 +j     15.1       59.8       0.9675
   TERMINAL TOTAL ............   729.7 +j    196.1      755.6       0.9658
N1136998                 1      -164.5 +j    -43.2      170.1       0.9673
N1136998                 2      -507.3 +j   -137.7      525.6       0.9651
N1136998                 3       -57.9 +j    -15.1       59.8       0.9675
   TERMINAL TOTAL ............  -729.6 +j   -196.0      755.5       0.9658

ELEMENT = "Line.LN6018326-1"
L2898515                 3        12.4 +j      3.3       12.8       0.9667
   TERMINAL TOTAL ............    12.4 +j      3.3       12.8       0.9667
M1166387                 3       -12.4 +j     -3.3       12.8       0.9665
   TERMINAL TOTAL ............   -12.4 +j     -3.3       12.8       0.9665

ELEMENT = "Line.LN5472356-1"
M1047442                 2         3.9 +j      1.0        4.1       0.9665
   TERMINAL TOTAL ............     3.9 +j      1.0        4.1       0.9665
L3235250                 2        -3.9 +j     -1.1        4.1       0.9660
   TERMINAL TOTAL ............    -3.9 +j     -1.1        4.1       0.9660

ELEMENT = "Line.LN6139641-1"
M1142871                 1      2773.7 +j    558.4     2829.3       0.9803
M1142871                 2      2681.6 +j    574.4     2742.4       0.9778
M1142871                 3      1976.1 +j    166.4     1983.1       0.9965
   TERMINAL TOTAL ............  7431.4 +j   1299.2     7544.1       0.9851
M1142874                 1     -2772.0 +j   -556.1     2827.2       0.9805
M1142874                 2     -2681.0 +j   -571.9     2741.4       0.9780
M1142874                 3     -1976.1 +j   -165.7     1983.0       0.9965
   TERMINAL TOTAL ............ -7429.1 +j  -1293.7     7540.9       0.9852

ELEMENT = "Line.LN6018341-1"
L2955081                 1       714.9 +j   -117.0      724.4      -0.9869
L2955081                 2       821.9 +j    -80.1      825.8      -0.9953
L2955081                 3      1117.0 +j    -15.2     1117.1      -0.9999
   TERMINAL TOTAL ............  2653.8 +j   -212.3     2662.3      -0.9968
M1108315                 1      -714.9 +j    117.3      724.5      -0.9868
M1108315                 2      -821.5 +j     80.4      825.5      -0.9952
M1108315                 3     -1116.7 +j     16.2     1116.8      -0.9999
   TERMINAL TOTAL ............ -2653.1 +j    213.9     2661.7      -0.9968

ELEMENT = "Line.LN6017302-1"
L2973162                 1        14.4 +j      3.8       14.9       0.9671
L2973162                 2       270.3 +j     72.4      279.8       0.9660
L2973162                 3         6.2 +j      1.6        6.4       0.9681
   TERMINAL TOTAL ............   290.9 +j     77.7      301.1       0.9661
M1026333                 1       -14.4 +j     -3.8       14.9       0.9669
M1026333                 2      -270.2 +j    -72.3      279.7       0.9660
M1026333                 3        -6.2 +j     -1.6        6.4       0.9677
   TERMINAL TOTAL ............  -290.8 +j    -77.7      301.0       0.9661

ELEMENT = "Line.LN6199505-1"
M1009832                 2         3.9 +j      1.0        4.1       0.9663
   TERMINAL TOTAL ............     3.9 +j      1.0        4.1       0.9663
L2860479                 2        -3.9 +j     -1.1        4.1       0.9660
   TERMINAL TOTAL ............    -3.9 +j     -1.1        4.1       0.9660

ELEMENT = "Line.LN5682327-1"
M1026854                 1       136.1 +j     36.3      140.9       0.9662
   TERMINAL TOTAL ............   136.1 +j     36.3      140.9       0.9662
P901894                  1      -136.1 +j    -36.3      140.9       0.9662
   TERMINAL TOTAL ............  -136.1 +j    -36.3      140.9       0.9662

ELEMENT = "Line.LN6290243-1"
M1026485                 2        19.9 +j      5.3       20.6       0.9664
   TERMINAL TOTAL ............    19.9 +j      5.3       20.6       0.9664
M1026492                 2       -19.9 +j     -5.3       20.6       0.9663
   TERMINAL TOTAL ............   -19.9 +j     -5.3       20.6       0.9663

ELEMENT = "Line.X8223_48332_SW"
D6413567-3_INT           1       560.7 +j   -159.0      582.8      -0.9620
D6413567-3_INT           2       603.8 +j   -141.7      620.2      -0.9736
D6413567-3_INT           3       219.8 +j   -258.2      339.0      -0.6481
   TERMINAL TOTAL ............  1384.2 +j   -558.9     1492.8      -0.9273
E182724                  1      -560.6 +j    159.1      582.8      -0.9620
E182724                  2      -603.8 +j    141.7      620.2      -0.9736
E182724                  3      -219.8 +j    258.2      339.0      -0.6481
   TERMINAL TOTAL ............ -1384.2 +j    558.9     1492.8      -0.9273

ELEMENT = "Line.LN6413567-3"
N1139541                 1       560.8 +j   -159.0      582.9      -0.9621
N1139541                 2       604.0 +j   -141.6      620.3      -0.9736
N1139541                 3       219.8 +j   -258.2      339.1      -0.6482
   TERMINAL TOTAL ............  1384.6 +j   -558.8     1493.1      -0.9273
D6413567-3_INT           1      -560.7 +j    159.0      582.8      -0.9620
D6413567-3_INT           2      -603.8 +j    141.7      620.2      -0.9736
D6413567-3_INT           3      -219.8 +j    258.2      339.0      -0.6481
   TERMINAL TOTAL ............ -1384.2 +j    558.9     1492.8      -0.9273

ELEMENT = "Line.LN5591731-3"
M4122658                 1      2395.4 +j    374.2     2424.5       0.9880
M4122658                 2      2270.4 +j    357.6     2298.4       0.9878
M4122658                 3      1688.2 +j     65.7     1689.5       0.9992
   TERMINAL TOTAL ............  6354.1 +j    797.4     6403.9       0.9922
L2933135                 1     -2395.4 +j   -374.1     2424.4       0.9880
L2933135                 2     -2270.4 +j   -357.5     2298.4       0.9878
L2933135                 3     -1688.2 +j    -65.7     1689.5       0.9992
   TERMINAL TOTAL ............ -6354.0 +j   -797.3     6403.8       0.9922

ELEMENT = "Line.LN5653470-1"
M1026702                 1         9.0 +j      2.4        9.3       0.9662
M1026702                 2         9.9 +j      2.6       10.2       0.9663
M1026702                 3        10.3 +j      2.7       10.7       0.9664
   TERMINAL TOTAL ............    29.2 +j      7.8       30.2       0.9663
L2729414                 1        -9.0 +j     -2.4        9.3       0.9659
L2729414                 2        -9.9 +j     -2.6       10.2       0.9660
L2729414                 3       -10.3 +j     -2.8       10.7       0.9661
   TERMINAL TOTAL ............   -29.2 +j     -7.8       30.2       0.9660

ELEMENT = "Line.LN6017316-1"
L2729430                 2       243.1 +j     64.8      251.6       0.9662
   TERMINAL TOTAL ............   243.1 +j     64.8      251.6       0.9662
L2766742                 2      -242.9 +j    -64.7      251.3       0.9663
   TERMINAL TOTAL ............  -242.9 +j    -64.7      251.3       0.9663

ELEMENT = "Line.LN5926299-1"
M1026972                 2        19.8 +j      5.3       20.5       0.9663
   TERMINAL TOTAL ............    19.8 +j      5.3       20.5       0.9663
L2860483                 2       -19.8 +j     -5.3       20.5       0.9662
   TERMINAL TOTAL ............   -19.8 +j     -5.3       20.5       0.9662

ELEMENT = "Line.LN5683831-1"
L2860490                 1       333.5 +j     88.2      345.0       0.9668
L2860490                 2       358.7 +j     97.2      371.6       0.9652
L2860490                 3       168.8 +j     44.3      174.5       0.9672
   TERMINAL TOTAL ............   861.0 +j    229.7      891.1       0.9662
L3104134                 1      -333.3 +j    -88.1      344.7       0.9668
L3104134                 2      -358.4 +j    -97.1      371.3       0.9652
L3104134                 3      -168.8 +j    -44.3      174.5       0.9672
   TERMINAL TOTAL ............  -860.5 +j   -229.5      890.6       0.9662

ELEMENT = "Line.LN6352700-1"
M1089144                 1        36.0 +j      9.6       37.2       0.9665
   TERMINAL TOTAL ............    36.0 +j      9.6       37.2       0.9665
P827522                  1       -36.0 +j     -9.6       37.2       0.9665
   TERMINAL TOTAL ............   -36.0 +j     -9.6       37.2       0.9665

ELEMENT = "Line.LN6047570-1"
M1089118                 1         5.4 +j      1.4        5.6       0.9660
   TERMINAL TOTAL ............     5.4 +j      1.4        5.6       0.9660
L3048208                 1        -5.4 +j     -1.4        5.6       0.9658
   TERMINAL TOTAL ............    -5.4 +j     -1.4        5.6       0.9658

ELEMENT = "Line.LN5624342-1"
M1108505                 1      2224.1 +j    307.1     2245.2       0.9906
M1108505                 2      2264.7 +j    329.8     2288.6       0.9896
M1108505                 3      1669.5 +j     54.2     1670.3       0.9995
   TERMINAL TOTAL ............  6158.2 +j    691.0     6196.9       0.9938
L2955047                 1     -2222.4 +j   -304.9     2243.2       0.9907
L2955047                 2     -2264.0 +j   -327.1     2287.5       0.9897
L2955047                 3     -1669.5 +j    -53.5     1670.3       0.9995
   TERMINAL TOTAL ............ -6155.9 +j   -685.5     6194.0       0.9939

ELEMENT = "Line.LN6259992-1"
M1089148                 1         9.0 +j      2.4        9.3       0.9662
   TERMINAL TOTAL ............     9.0 +j      2.4        9.3       0.9662
L2766721                 1        -9.0 +j     -2.4        9.3       0.9661
   TERMINAL TOTAL ............    -9.0 +j     -2.4        9.3       0.9661

ELEMENT = "Line.LN5841919-1"
M1026745                 2         5.9 +j      1.6        6.1       0.9665
   TERMINAL TOTAL ............     5.9 +j      1.6        6.1       0.9665
L3029183                 2        -5.9 +j     -1.6        6.1       0.9661
   TERMINAL TOTAL ............    -5.9 +j     -1.6        6.1       0.9661

ELEMENT = "Line.LN6380811-1"
L2710512                 2       112.9 +j     29.9      116.8       0.9666
   TERMINAL TOTAL ............   112.9 +j     29.9      116.8       0.9666
M1047828                 2      -112.8 +j    -29.9      116.7       0.9666
   TERMINAL TOTAL ............  -112.8 +j    -29.9      116.7       0.9666

ELEMENT = "Line.LN5683832-1"
M1047342                 1         9.0 +j      2.4        9.3       0.9662
   TERMINAL TOTAL ............     9.0 +j      2.4        9.3       0.9662
L3197645                 1        -9.0 +j     -2.4        9.3       0.9659
   TERMINAL TOTAL ............    -9.0 +j     -2.4        9.3       0.9659

ELEMENT = "Line.LN6077778-1"
M1069192                 1         9.0 +j      2.4        9.3       0.9662
   TERMINAL TOTAL ............     9.0 +j      2.4        9.3       0.9662
L3235253                 1        -9.0 +j     -2.4        9.3       0.9659
   TERMINAL TOTAL ............    -9.0 +j     -2.4        9.3       0.9659

ELEMENT = "Line.LN5561442-2"
L3214071                 1      2733.8 +j    519.6     2782.7       0.9824
L3214071                 2      2673.0 +j    535.2     2726.0       0.9805
L3214071                 3      1938.7 +j    147.2     1944.3       0.9971
   TERMINAL TOTAL ............  7345.5 +j   1201.9     7443.2       0.9869
M1125952                 1     -2731.3 +j   -516.4     2779.7       0.9826
M1125952                 2     -2672.2 +j   -531.6     2724.6       0.9808
M1125952                 3     -1938.7 +j   -146.3     1944.2       0.9972
   TERMINAL TOTAL ............ -7342.3 +j  -1194.3     7438.8       0.9870

ELEMENT = "Line.LN6259983-1"
M1027101                 2         9.9 +j      2.6       10.2       0.9666
   TERMINAL TOTAL ............     9.9 +j      2.6       10.2       0.9666
L2860480                 2        -9.9 +j     -2.6       10.2       0.9661
   TERMINAL TOTAL ............    -9.9 +j     -2.6       10.2       0.9661

ELEMENT = "Line.LN5865244-1"
L2710517                 1       110.9 +j     29.4      114.8       0.9666
   TERMINAL TOTAL ............   110.9 +j     29.4      114.8       0.9666
M1026646                 1      -110.9 +j    -29.4      114.8       0.9666
   TERMINAL TOTAL ............  -110.9 +j    -29.4      114.8       0.9666

ELEMENT = "Line.LN6350555-1"
M1069662                 2         5.9 +j      1.6        6.1       0.9663
   TERMINAL TOTAL ............     5.9 +j      1.6        6.1       0.9663
L2935547                 2        -5.9 +j     -1.6        6.1       0.9660
   TERMINAL TOTAL ............    -5.9 +j     -1.6        6.1       0.9660

ELEMENT = "Line.LN5714039-1"
M1026931                 1        39.6 +j     10.6       41.0       0.9662
   TERMINAL TOTAL ............    39.6 +j     10.6       41.0       0.9662
L3216336                 1       -39.6 +j    -10.6       41.0       0.9662
   TERMINAL TOTAL ............   -39.6 +j    -10.6       41.0       0.9662

ELEMENT = "Line.LN5889821-1"
L3142049                 1      2340.2 +j    348.2     2365.9       0.9891
L3142049                 2      2267.5 +j    343.3     2293.3       0.9887
L3142049                 3      1673.6 +j     58.4     1674.7       0.9994
   TERMINAL TOTAL ............  6281.3 +j    750.0     6325.9       0.9929
M1108493                 1     -2337.3 +j   -344.3     2362.5       0.9893
M1108493                 2     -2266.6 +j   -339.2     2291.9       0.9890
M1108493                 3     -1673.6 +j    -57.5     1674.6       0.9994
   TERMINAL TOTAL ............ -6277.5 +j   -741.0     6321.1       0.9931

ELEMENT = "Line.LN5804791-1"
M1069169                 1       425.3 +j   -195.1      467.9      -0.9089
M1069169                 2       602.8 +j   -142.1      619.3      -0.9733
M1069169                 3       219.6 +j   -258.3      339.0      -0.6477
   TERMINAL TOTAL ............  1247.7 +j   -595.6     1382.5      -0.9025
L3010556                 1      -424.8 +j    195.2      467.5      -0.9087
L3010556                 2      -602.0 +j    142.5      618.6      -0.9731
L3010556                 3      -219.4 +j    258.4      339.0      -0.6473
   TERMINAL TOTAL ............ -1246.2 +j    596.1     1381.4      -0.9021

ELEMENT = "Line.LN5653486-1"
L2991933                 3        31.1 +j      8.3       32.2       0.9664
   TERMINAL TOTAL ............    31.1 +j      8.3       32.2       0.9664
L3122837                 3       -31.1 +j     -8.3       32.2       0.9663
   TERMINAL TOTAL ............   -31.1 +j     -8.3       32.2       0.9663

ELEMENT = "Line.LN5926286-1"
L3216336                 1        30.6 +j      8.1       31.6       0.9663
   TERMINAL TOTAL ............    30.6 +j      8.1       31.6       0.9663
L2691936                 1       -30.6 +j     -8.2       31.6       0.9662
   TERMINAL TOTAL ............   -30.6 +j     -8.2       31.6       0.9662

ELEMENT = "Line.LN6318859-1"
L2897772                 1        -0.0 +j     -0.0        0.0       0.0000
   TERMINAL TOTAL ............    -0.0 +j     -0.0        0.0       0.0000
L3101814                 1         0.0 +j      0.0        0.0       0.4335
   TERMINAL TOTAL ............     0.0 +j      0.0        0.0       0.4335

ELEMENT = "Line.LN5926316-1"
L2766732                 2        80.0 +j     21.4       82.8       0.9661
   TERMINAL TOTAL ............    80.0 +j     21.4       82.8       0.9661
M1026485                 2       -80.0 +j    -21.4       82.8       0.9661
   TERMINAL TOTAL ............   -80.0 +j    -21.4       82.8       0.9661

ELEMENT = "Line.LN5591703-1"
L2804269                 2        17.8 +j      4.7       18.4       0.9665
   TERMINAL TOTAL ............    17.8 +j      4.7       18.4       0.9665
L2989564                 2       -17.8 +j     -4.7       18.4       0.9664
   TERMINAL TOTAL ............   -17.8 +j     -4.7       18.4       0.9664

ELEMENT = "Line.LN5531333-1"
M1126016                 1        36.1 +j      9.6       37.4       0.9666
   TERMINAL TOTAL ............    36.1 +j      9.6       37.4       0.9666
L3120534                 1       -36.1 +j     -9.6       37.4       0.9666
   TERMINAL TOTAL ............   -36.1 +j     -9.6       37.4       0.9666

ELEMENT = "Line.LN6047581-1"
M1026330                 2         5.9 +j      1.6        6.1       0.9662
   TERMINAL TOTAL ............     5.9 +j      1.6        6.1       0.9662
L2766726                 2        -5.9 +j     -1.6        6.1       0.9661
   TERMINAL TOTAL ............    -5.9 +j     -1.6        6.1       0.9661

ELEMENT = "Line.LN6349077-1"
P901912                  2        -0.0 +j     -0.0        0.0       0.0000
   TERMINAL TOTAL ............    -0.0 +j     -0.0        0.0       0.0000
L3195365                 2        -0.0 +j      0.0        0.0      -0.2583
   TERMINAL TOTAL ............    -0.0 +j      0.0        0.0      -0.2583

ELEMENT = "Line.LN6350574-1"
M1108381                 1        63.3 +j     16.7       65.4       0.9670
M1108381                 2        65.4 +j     17.2       67.7       0.9671
M1108381                 3        62.2 +j     16.3       64.3       0.9672
   TERMINAL TOTAL ............   190.9 +j     50.2      197.4       0.9671
L3254237                 1       -63.2 +j    -16.7       65.4       0.9670
L3254237                 2       -65.4 +j    -17.2       67.7       0.9670
L3254237                 3       -62.2 +j    -16.4       64.3       0.9671
   TERMINAL TOTAL ............  -190.9 +j    -50.3      197.4       0.9670

ELEMENT = "Line.LN6320343-1"
L2804262                 1       121.7 +j     32.4      125.9       0.9663
   TERMINAL TOTAL ............   121.7 +j     32.4      125.9       0.9663
L2841639                 1      -121.6 +j    -32.4      125.9       0.9663
   TERMINAL TOTAL ............  -121.6 +j    -32.4      125.9       0.9663

ELEMENT = "Line.LN81048100-5"
N1230123                 2       184.8 +j     48.6      191.1       0.9671
   TERMINAL TOTAL ............   184.8 +j     48.6      191.1       0.9671
L2708744                 2      -184.7 +j    -48.6      191.0       0.9670
   TERMINAL TOTAL ............  -184.7 +j    -48.6      191.0       0.9670

ELEMENT = "Line.LN6348946-1"
M1069519                 2         9.9 +j      2.6       10.2       0.9661
   TERMINAL TOTAL ............     9.9 +j      2.6       10.2       0.9661
P901927                  2        -9.9 +j     -2.6       10.2       0.9661
...